data_MOF5(277428)
_audit_creation_date              2013-08-26
_audit_creation_method            'Materials Studio'
_symmetry_space_group_name_H-M    'R-3'
_symmetry_Int_Tables_number       148
_symmetry_cell_setting            trigonal
loop_
_symmetry_equiv_pos_as_xyz
  x,y,z
  -y,x-y,z
  -x+y,-x,z
  -x,-y,-z
  y,-x+y,-z
  x-y,x,-z
  x+2/3,y+1/3,z+1/3
  -y+2/3,x-y+1/3,z+1/3
  -x+y+2/3,-x+1/3,z+1/3
  -x+2/3,-y+1/3,-z+1/3
  y+2/3,-x+y+1/3,-z+1/3
  x-y+2/3,x+1/3,-z+1/3
  x+1/3,y+2/3,z+2/3
  -y+1/3,x-y+2/3,z+2/3
  -x+y+1/3,-x+2/3,z+2/3
  -x+1/3,-y+2/3,-z+2/3
  y+1/3,-x+y+2/3,-z+2/3
  x-y+1/3,x+2/3,-z+2/3
_cell_length_a                    18.3098
_cell_length_b                    18.3098
_cell_length_c                    44.8497
_cell_angle_alpha                 90.0000
_cell_angle_beta                  90.0000
_cell_angle_gamma                 120.0000
loop_
_atom_site_label
_atom_site_type_symbol
_atom_site_description
_atom_site_fract_x
_atom_site_fract_y
_atom_site_fract_z
_atom_site_U_iso_or_equiv
_atom_site_adp_type
_atom_site_occupancy
Zn1    Zn  Zn3+2  0.11580   0.05790   0.26447   0.00637  Uani   1.00
O2     O   O_R    0.13890   0.15504   0.28876   0.01213  Uani   1.00
C3     C   C_R    0.21474   0.29764   0.32441   0.01397  Uani   1.00
H4     H   H_     0.24740   0.27320   0.31830   0.01700  Uiso   1.00
O5     O   O_R   -0.05706  -0.11412   0.19078   0.01213  Uani   1.00
C6     C   C_R   -0.12685  -0.25369   0.15362   0.01397  Uani   1.00
H7     H   H_    -0.09967  -0.19933   0.14477   0.01700  Uiso   1.00
O8     O   O_R    0.01614   0.15504   0.28876   0.01213  Uani   1.00
C9     C   C_R    0.08290   0.29764   0.32441   0.01397  Uani   1.00
H10    H   H_     0.02580   0.27320   0.31830   0.01700  Uiso   1.00
O11    O   O_R   -0.09798  -0.19596   0.23170   0.01213  Uani   1.00
C12    C   C_R   -0.17079  -0.34159   0.19756   0.01397  Uani   1.00
H13    H   H_    -0.17353  -0.34707   0.21863   0.01700  Uiso   1.00
C14    C   C_R    0.09231   0.18461   0.29615   0.00983  Uani   1.00
C15    C   C_R    0.13085   0.26169   0.31542   0.01033  Uani   1.00
C16    C   C_R   -0.09231  -0.18461   0.20385   0.00983  Uani   1.00
C17    C   C_R   -0.13085  -0.26169   0.18458   0.01033  Uani   1.00
Zn18   Zn  Zn3+2  0.00000  -0.00000   0.20658   0.00637  Uani   1.00
O19    O   O_R    0.00000  -0.00000   0.25000   0.00740  Uani   1.00
loop_
_atom_site_aniso_label
_atom_site_aniso_U_11
_atom_site_aniso_U_22
_atom_site_aniso_U_33
_atom_site_aniso_U_12
_atom_site_aniso_U_13
_atom_site_aniso_U_23
Zn1       0.00632   0.00638   0.00639   0.00316  -0.00003  -0.00001
O2        0.01104   0.01110   0.01480   0.00594  -0.00234  -0.00523
C3        0.01188   0.01323   0.01777   0.00702  -0.00292  -0.00641
O5        0.01585   0.00791   0.00999   0.00396  -0.00064  -0.00128
C6        0.01895   0.00890   0.01070   0.00445  -0.00042  -0.00085
O8        0.01026   0.01110   0.01480   0.00516  -0.00289  -0.00523
C9        0.01108   0.01323   0.01777   0.00622  -0.00349  -0.00641
O11       0.01611   0.00895   0.00895   0.00448  -0.00082  -0.00165
C12       0.01922   0.00997   0.00963   0.00498  -0.00061  -0.00123
C14       0.01147   0.00837   0.00863   0.00418  -0.00019  -0.00038
C15       0.01095   0.00870   0.01060   0.00435  -0.00134  -0.00269
C16       0.00907   0.00957   0.01103   0.00478  -0.00104  -0.00207
C17       0.01148   0.00843   0.01007   0.00422  -0.00115  -0.00231
Zn18      0.00640   0.00640   0.00631   0.00320   0.00000  -0.00000
O19       0.00740   0.00740   0.00740   0.00370   0.00000   0.00000
loop_
_geom_bond_atom_site_label_1
_geom_bond_atom_site_label_2
_geom_bond_distance
_geom_bond_site_symmetry_2
_ccdc_geom_bond_type
Zn1    O2      1.943   .     S
Zn1    O11     1.943   2     S
Zn1    O8      1.943   3     S
Zn1    O19     1.948   .     S
O2     C14     1.262   .     A
C3     C15     1.394   .     A
C3     H4      0.949   .     S
C3     C9      1.386   16    A
O5     Zn18    1.943   .     S
O5     C16     1.262   .     A
C6     C17     1.394   .     A
C6     H7      0.949   .     S
C6     C12     1.386   10_445 A
O8     Zn1     1.943   2     S
O8     C14     1.262   .     A
C9     C15     1.394   .     A
C9     H10     0.949   .     S
C9     C3      1.386   16    A
O11    Zn1     1.943   3     S
O11    C16     1.262   .     A
C12    C17     1.394   .     A
C12    H13     0.949   .     S
C12    C6      1.386   10_445 A
C14    C15     1.497   .     S
C16    C17     1.497   .     S
Zn18   O5      1.943   2     S
Zn18   O5      1.943   3     S
Zn18   O19     1.948   .     S
O19    Zn1     1.948   2     S
O19    Zn1     1.948   3     S
